powerfulcases/cases/matpower/case_RTS_GMLC/case_RTS_GMLC.raw
0, 100, 33, 0, 0, 60  / 28-Jan-2026 21:53:59 - MATPOWER 8.1


   101, 'ABEL        ',       138, 2,    1,   11, 1,     1.04777,    -7.74152, 1.05, 0.95, 1.05, 0.95
   102, 'ADAMS       ',       138, 2,    1,   12, 1,     1.04783,    -7.81784, 1.05, 0.95, 1.05, 0.95
   103, 'ADLER       ',       138, 1,    1,   11, 1,     1.01085,     -7.2109, 1.05, 0.95, 1.05, 0.95
   104, 'AGRICOLA    ',       138, 1,    1,   11, 1,     1.01765,   -10.56614, 1.05, 0.95, 1.05, 0.95
   105, 'AIKEN       ',       138, 1,    1,   11, 1,     1.03568,   -10.70887, 1.05, 0.95, 1.05, 0.95
   106, 'ALBER       ',       138, 1,    1,   12, 1,     1.03242,   -13.27944, 1.05, 0.95, 1.05, 0.95
   107, 'ALDER       ',       138, 2,    1,   12, 1,     1.03745,   -11.27673, 1.05, 0.95, 1.05, 0.95
   108, 'ALGER       ',       138, 1,    1,   12, 1,     1.01024,   -13.74967, 1.05, 0.95, 1.05, 0.95
   109, 'ALI         ',       138, 1,    1,   13, 1,      1.0261,    -8.81524, 1.05, 0.95, 1.05, 0.95
   110, 'ALLEN       ',       138, 1,    1,   13, 1,        1.05,   -10.62063, 1.05, 0.95, 1.05, 0.95
   111, 'ANNA        ',       230, 1,    1,   13, 1,     1.02764,    -3.91674, 1.05, 0.95, 1.05, 0.95
   112, 'ARCHER      ',       230, 1,    1,   13, 1,     1.02024,    -2.42424, 1.05, 0.95, 1.05, 0.95
   113, 'ARNE        ',       230, 3,    1,   14, 1,     1.03943,           0, 1.05, 0.95, 1.05, 0.95
   114, 'ARNOLD      ',       230, 2,    1,   16, 1,     1.04401,    -1.73056, 1.05, 0.95, 1.05, 0.95
   115, 'ARTHUR      ',       230, 2,    1,   16, 1,     1.04335,      7.9597, 1.05, 0.95, 1.05, 0.95
   116, 'ASSER       ',       230, 2,    1,   16, 1,     1.04565,     7.56929, 1.05, 0.95, 1.05, 0.95
   117, 'ASTON       ',       230, 1,    1,   17, 1,     1.04783,    11.43417, 1.05, 0.95, 1.05, 0.95
   118, 'ASTOR       ',       230, 2,    1,   17, 1,        1.05,    12.52457, 1.05, 0.95, 1.05, 0.95
   119, 'ATTAR       ',       230, 1,    1,   15, 1,     1.03962,     6.65777, 1.05, 0.95, 1.05, 0.95
   120, 'ATTILA      ',       230, 1,    1,   15, 1,     1.04399,      7.7406, 1.05, 0.95, 1.05, 0.95
   121, 'ATTLEE      ',       230, 2,    1,   17, 1,        1.05,    13.08653, 1.05, 0.95, 1.05, 0.95
   122, 'AUBREY      ',       230, 2,    1,   17, 1,        1.05,    18.94978, 1.05, 0.95, 1.05, 0.95
   123, 'AUSTEN      ',       230, 2,    1,   15, 1,        1.05,     9.05617, 1.05, 0.95, 1.05, 0.95
   124, 'AVERY       ',       230, 1,    1,   16, 1,     1.01155,     2.38339, 1.05, 0.95, 1.05, 0.95
   201, 'BACH        ',       138, 2,    2,   21, 1,     1.04841,   -10.68973, 1.05, 0.95, 1.05, 0.95
   202, 'BACON       ',       138, 2,    2,   22, 1,     1.04844,   -10.75906, 1.05, 0.95, 1.05, 0.95
   203, 'BAFFIN      ',       138, 1,    2,   21, 1,     1.01886,   -10.47453, 1.05, 0.95, 1.05, 0.95
   204, 'BAILEY      ',       138, 1,    2,   21, 1,      1.0189,   -13.48479, 1.05, 0.95, 1.05, 0.95
   205, 'BAIN        ',       138, 1,    2,   21, 1,     1.03603,   -13.61187, 1.05, 0.95, 1.05, 0.95
   206, 'BAJER       ',       138, 1,    2,   22, 1,     1.03259,   -16.15672, 1.05, 0.95, 1.05, 0.95
   207, 'BAKER       ',       138, 2,    2,   22, 1,     1.03973,   -13.46606, 1.05, 0.95, 1.05, 0.95
   208, 'BALCH       ',       138, 1,    2,   22, 1,     1.01203,   -16.22359, 1.05, 0.95, 1.05, 0.95
   209, 'BALZAC      ',       138, 1,    2,   23, 1,     1.02781,   -11.72409, 1.05, 0.95, 1.05, 0.95
   210, 'BANKS       ',       138, 1,    2,   23, 1,        1.05,   -13.47986, 1.05, 0.95, 1.05, 0.95
   211, 'BARDEEN     ',       230, 1,    2,   23, 1,     1.02735,    -6.93336, 1.05, 0.95, 1.05, 0.95
   212, 'BARKLA      ',       230, 1,    2,   23, 1,     1.01921,    -5.25334, 1.05, 0.95, 1.05, 0.95
   213, 'BARLOW      ',       230, 2,    2,   24, 1,     1.03752,     -3.2151, 1.05, 0.95, 1.05, 0.95
   214, 'BARRY       ',       230, 2,    2,   26, 1,     1.04335,    -4.68519, 1.05, 0.95, 1.05, 0.95
   215, 'BARTON      ',       230, 2,    2,   26, 1,     1.04327,     4.63351, 1.05, 0.95, 1.05, 0.95
   216, 'BASOV       ',       230, 2,    2,   26, 1,     1.04556,     4.70009, 1.05, 0.95, 1.05, 0.95
   217, 'BATES       ',       230, 1,    2,   27, 1,     1.04847,     8.81839, 1.05, 0.95, 1.05, 0.95
   218, 'BAYLE       ',       230, 2,    2,   27, 1,        1.05,     9.99473, 1.05, 0.95, 1.05, 0.95
   219, 'BEDE        ',       230, 1,    2,   25, 1,     1.03946,     4.21233, 1.05, 0.95, 1.05, 0.95
   220, 'BEETHOVEN   ',       230, 1,    2,   25, 1,      1.0438,     5.66449, 1.05, 0.95, 1.05, 0.95
   221, 'BEHRING     ',       230, 2,    2,   27, 1,        1.05,    10.63209, 1.05, 0.95, 1.05, 0.95
   222, 'BELL        ',       230, 2,    2,   27, 1,        1.05,    16.43203, 1.05, 0.95, 1.05, 0.95
   223, 'BLOCH       ',       230, 2,    2,   25, 1,        1.05,     7.18151, 1.05, 0.95, 1.05, 0.95
   224, 'BORDET      ',       230, 1,    2,   26, 1,     1.01456,    -0.96005, 1.05, 0.95, 1.05, 0.95
   301, 'CABELL      ',       138, 2,    3,   31, 1,      1.0486,    -9.34821, 1.05, 0.95, 1.05, 0.95
   302, 'CABOT       ',       138, 2,    3,   32, 1,     1.04864,      -9.431, 1.05, 0.95, 1.05, 0.95
   303, 'CAESAR      ',       138, 1,    3,   31, 1,     1.01045,    -8.57689, 1.05, 0.95, 1.05, 0.95
   304, 'CAINE       ',       138, 1,    3,   31, 1,     1.01785,   -12.18784, 1.05, 0.95, 1.05, 0.95
   305, 'CALVIN      ',       138, 1,    3,   31, 1,     1.03609,   -12.35005, 1.05, 0.95, 1.05, 0.95
   306, 'CAMUS       ',       138, 1,    3,   32, 1,      1.0326,   -14.94205, 1.05, 0.95, 1.05, 0.95
   307, 'CAREW       ',       138, 2,    3,   32, 1,     1.03804,   -12.54795, 1.05, 0.95, 1.05, 0.95
   308, 'CARREL      ',       138, 1,    3,   32, 1,     1.01056,   -15.18287, 1.05, 0.95, 1.05, 0.95
   309, 'CARTER      ',       138, 1,    3,   33, 1,     1.02579,   -10.44617, 1.05, 0.95, 1.05, 0.95
   310, 'CARUSO      ',       138, 1,    3,   33, 1,        1.05,   -12.30117, 1.05, 0.95, 1.05, 0.95
   311, 'CARY        ',       230, 1,    3,   33, 1,      1.0283,    -5.74069, 1.05, 0.95, 1.05, 0.95
   312, 'CAXTON      ',       230, 1,    3,   33, 1,       1.019,    -4.14604, 1.05, 0.95, 1.05, 0.95
   313, 'CECIL       ',       230, 2,    3,   34, 1,     1.03802,    -2.41513, 1.05, 0.95, 1.05, 0.95
   314, 'CHAIN       ',       230, 2,    3,   36, 1,     1.04631,    -3.20793, 1.05, 0.95, 1.05, 0.95
   315, 'CHASE       ',       230, 2,    3,   36, 1,       1.043,     7.05088, 1.05, 0.95, 1.05, 0.95
   316, 'CHIFA       ',       230, 2,    3,   36, 1,     1.04558,     6.59875, 1.05, 0.95, 1.05, 0.95
   317, 'CHUHSI      ',       230, 1,    3,   37, 1,     1.04785,    10.34418, 1.05, 0.95, 1.05, 0.95
   318, 'CLARK       ',       230, 2,    3,   37, 1,        1.05,    11.34262, 1.05, 0.95, 1.05, 0.95
   319, 'CLAY        ',       230, 1,    3,   35, 1,     1.03953,     5.91539, 1.05, 0.95, 1.05, 0.95
   320, 'CLIVE       ',       230, 1,    3,   35, 1,     1.04389,     7.19709, 1.05, 0.95, 1.05, 0.95
   321, 'COBB        ',       230, 2,    3,   37, 1,        1.05,    12.34122, 1.05, 0.95, 1.05, 0.95
   322, 'COLE        ',       230, 2,    3,   37, 1,        1.05,    18.06914, 1.05, 0.95, 1.05, 0.95
   323, 'COMTE       ',       230, 2,    3,   35, 1,        1.05,     8.62112, 1.05, 0.95, 1.05, 0.95
   324, 'CURIE       ',       230, 1,    3,   36, 1,     1.01046,     1.30606, 1.05, 0.95, 1.05, 0.95
   325, 'CURTISS     ',       230, 1,    3,   35, 1,     1.04986,     8.99332, 1.05, 0.95, 1.05, 0.95
0 / END OF BUS DATA, BEGIN LOAD DATA
   101,  1, 1,    1,   11,       108,        22, 0, 0, 0, 0, 1, 1, 0
   102,  1, 1,    1,   12,        97,        20, 0, 0, 0, 0, 1, 1, 0
   103,  1, 1,    1,   11,       180,        37, 0, 0, 0, 0, 1, 1, 0
   104,  1, 1,    1,   11,        74,        15, 0, 0, 0, 0, 1, 1, 0
   105,  1, 1,    1,   11,        71,        14, 0, 0, 0, 0, 1, 1, 0
   106,  1, 1,    1,   12,       136,        28, 0, 0, 0, 0, 1, 1, 0
   107,  1, 1,    1,   12,       125,        25, 0, 0, 0, 0, 1, 1, 0
   108,  1, 1,    1,   12,       171,        35, 0, 0, 0, 0, 1, 1, 0
   109,  1, 1,    1,   13,       175,        36, 0, 0, 0, 0, 1, 1, 0
   110,  1, 1,    1,   13,       195,        40, 0, 0, 0, 0, 1, 1, 0
   113,  1, 1,    1,   14,       265,        54, 0, 0, 0, 0, 1, 1, 0
   114,  1, 1,    1,   16,       194,        39, 0, 0, 0, 0, 1, 1, 0
   115,  1, 1,    1,   16,       317,        64, 0, 0, 0, 0, 1, 1, 0
   116,  1, 1,    1,   16,       100,        20, 0, 0, 0, 0, 1, 1, 0
   118,  1, 1,    1,   17,       333,        68, 0, 0, 0, 0, 1, 1, 0
   119,  1, 1,    1,   15,       181,        37, 0, 0, 0, 0, 1, 1, 0
   120,  1, 1,    1,   15,       128,        26, 0, 0, 0, 0, 1, 1, 0
   201,  1, 1,    2,   21,       108,        22, 0, 0, 0, 0, 1, 1, 0
   202,  1, 1,    2,   22,        97,        20, 0, 0, 0, 0, 1, 1, 0
   203,  1, 1,    2,   21,       180,        37, 0, 0, 0, 0, 1, 1, 0
   204,  1, 1,    2,   21,        74,        15, 0, 0, 0, 0, 1, 1, 0
   205,  1, 1,    2,   21,        71,        14, 0, 0, 0, 0, 1, 1, 0
   206,  1, 1,    2,   22,       136,        28, 0, 0, 0, 0, 1, 1, 0
   207,  1, 1,    2,   22,       125,        25, 0, 0, 0, 0, 1, 1, 0
   208,  1, 1,    2,   22,       171,        35, 0, 0, 0, 0, 1, 1, 0
   209,  1, 1,    2,   23,       175,        36, 0, 0, 0, 0, 1, 1, 0
   210,  1, 1,    2,   23,       195,        40, 0, 0, 0, 0, 1, 1, 0
   213,  1, 1,    2,   24,       265,        54, 0, 0, 0, 0, 1, 1, 0
   214,  1, 1,    2,   26,       194,        39, 0, 0, 0, 0, 1, 1, 0
   215,  1, 1,    2,   26,       317,        64, 0, 0, 0, 0, 1, 1, 0
   216,  1, 1,    2,   26,       100,        20, 0, 0, 0, 0, 1, 1, 0
   218,  1, 1,    2,   27,       333,        68, 0, 0, 0, 0, 1, 1, 0
   219,  1, 1,    2,   25,       181,        37, 0, 0, 0, 0, 1, 1, 0
   220,  1, 1,    2,   25,       128,        26, 0, 0, 0, 0, 1, 1, 0
   301,  1, 1,    3,   31,       108,        22, 0, 0, 0, 0, 1, 1, 0
   302,  1, 1,    3,   32,        97,        20, 0, 0, 0, 0, 1, 1, 0
   303,  1, 1,    3,   31,       180,        37, 0, 0, 0, 0, 1, 1, 0
   304,  1, 1,    3,   31,        74,        15, 0, 0, 0, 0, 1, 1, 0
   305,  1, 1,    3,   31,        71,        14, 0, 0, 0, 0, 1, 1, 0
   306,  1, 1,    3,   32,       136,        28, 0, 0, 0, 0, 1, 1, 0
   307,  1, 1,    3,   32,       125,        25, 0, 0, 0, 0, 1, 1, 0
   308,  1, 1,    3,   32,       171,        35, 0, 0, 0, 0, 1, 1, 0
   309,  1, 1,    3,   33,       175,        36, 0, 0, 0, 0, 1, 1, 0
   310,  1, 1,    3,   33,       195,        40, 0, 0, 0, 0, 1, 1, 0
   313,  1, 1,    3,   34,       265,        54, 0, 0, 0, 0, 1, 1, 0
   314,  1, 1,    3,   36,       194,        39, 0, 0, 0, 0, 1, 1, 0
   315,  1, 1,    3,   36,       317,        64, 0, 0, 0, 0, 1, 1, 0
   316,  1, 1,    3,   36,       100,        20, 0, 0, 0, 0, 1, 1, 0
   318,  1, 1,    3,   37,       333,        68, 0, 0, 0, 0, 1, 1, 0
   319,  1, 1,    3,   35,       181,        37, 0, 0, 0, 0, 1, 1, 0
   320,  1, 1,    3,   35,       128,        26, 0, 0, 0, 0, 1, 1, 0
0 / END OF LOAD DATA, BEGIN FIXED SHUNT DATA
   106, 1, 1,       0,    -100
   206, 1, 1,       0,    -100
   306, 1, 1,       0,    -100
0 / END OF FIXED SHUNT DATA, BEGIN GENERATOR DATA
   101,  1,         8,      4.96,        10,         0,   1.0468, 0,     100, 0, 1, 0, 0, 1, 1, 100,        20,         8, 1, 1, 0, 1, 0, 1, 0, 1, 0, 1
   101,  2,         8,      4.96,        10,         0,   1.0468, 0,     100, 0, 1, 0, 0, 1, 1, 100,        20,         8, 1, 1, 0, 1, 0, 1, 0, 1, 0, 1
   101,  3,        76,      0.14,        30,       -25,   1.0468, 0,     100, 0, 1, 0, 0, 1, 1, 100,        76,        30, 1, 1, 0, 1, 0, 1, 0, 1, 0, 1
   101,  4,        76,      0.14,        30,       -25,   1.0468, 0,     100, 0, 1, 0, 0, 1, 1, 100,        76,        30, 1, 1, 0, 1, 0, 1, 0, 1, 0, 1
   102,  1,         8,      4.88,        10,         0,   1.0467, 0,     100, 0, 1, 0, 0, 1, 1, 100,        20,         8, 1, 1, 0, 1, 0, 1, 0, 1, 0, 1
   102,  2,         8,      4.88,        10,         0,   1.0467, 0,     100, 0, 1, 0, 0, 1, 1, 100,        20,         8, 1, 1, 0, 1, 0, 1, 0, 1, 0, 1
   102,  3,        76,     -2.31,        30,       -25,   1.0467, 0,     100, 0, 1, 0, 0, 1, 1, 100,        76,        30, 1, 1, 0, 1, 0, 1, 0, 1, 0, 1
   102,  4,        76,     -2.31,        30,       -25,   1.0467, 0,     100, 0, 1, 0, 0, 1, 1, 100,        76,        30, 1, 1, 0, 1, 0, 1, 0, 1, 0, 1
   107,  1,       355,     49.51,       150,       -25,     1.05, 0,     100, 0, 1, 0, 0, 1, 1, 100,       355,       170, 1, 1, 0, 1, 0, 1, 0, 1, 0, 1
   113,  1,        55,        19,        19,       -15,   1.0347, 0,     100, 0, 1, 0, 0, 1, 1, 100,        55,        22, 1, 1, 0, 1, 0, 1, 0, 1, 0, 1
   113,  2,        55,        19,        19,       -15,   1.0347, 0,     100, 0, 1, 0, 0, 1, 1, 100,        55,        22, 1, 1, 0, 1, 0, 1, 0, 1, 0, 1
   113,  3,        55,        19,        19,       -15,   1.0347, 0,     100, 0, 1, 0, 0, 1, 1, 100,        55,        22, 1, 1, 0, 1, 0, 1, 0, 1, 0, 1
   113,  4,        55,        19,        19,       -15,   1.0347, 0,     100, 0, 1, 0, 0, 1, 1, 100,        55,        22, 1, 1, 0, 1, 0, 1, 0, 1, 0, 1
   115,  1,         5,         6,         6,         0,   1.0428, 0,     100, 0, 1, 0, 0, 1, 1, 100,        12,         5, 1, 1, 0, 1, 0, 1, 0, 1, 0, 1
   115,  2,         5,         6,         6,         0,   1.0428, 0,     100, 0, 1, 0, 0, 1, 1, 100,        12,         5, 1, 1, 0, 1, 0, 1, 0, 1, 0, 1
   115,  3,       155,        80,        80,       -50,   1.0428, 0,     100, 0, 1, 0, 0, 1, 1, 100,       155,        62, 1, 1, 0, 1, 0, 1, 0, 1, 0, 1
   116,  1,       155,        80,        80,       -50,   1.0461, 0,     100, 0, 1, 0, 0, 1, 1, 100,       155,        62, 1, 1, 0, 1, 0, 1, 0, 1, 0, 1
   118,  1,       355,     68.43,       150,       -25,     1.05, 0,     100, 0, 1, 0, 0, 1, 1, 100,       355,       170, 1, 1, 0, 1, 0, 1, 0, 1, 0, 1
   123,  1,       155,     -5.19,        80,       -50,     1.05, 0,     100, 0, 1, 0, 0, 1, 1, 100,       155,        62, 1, 1, 0, 1, 0, 1, 0, 1, 0, 1
   123,  2,       350,     28.41,       150,       -25,     1.05, 0,     100, 0, 1, 0, 0, 1, 1, 100,       350,       140, 1, 1, 0, 1, 0, 1, 0, 1, 0, 1
   123,  3,        55,      0.62,        19,       -15,     1.05, 0,     100, 0, 1, 0, 0, 1, 1, 100,        55,        22, 1, 1, 0, 1, 0, 1, 0, 1, 0, 1
   123,  4,        55,      0.62,        19,       -15,     1.05, 0,     100, 0, 1, 0, 0, 1, 1, 100,        55,        22, 1, 1, 0, 1, 0, 1, 0, 1, 0, 1
   123,  5,        55,      0.62,        19,       -15,     1.05, 0,     100, 0, 1, 0, 0, 1, 1, 100,        55,        22, 1, 1, 0, 1, 0, 1, 0, 1, 0, 1
   201,  1,         8,      5.29,        10,         0,     1.05, 0,     100, 0, 1, 0, 0, 1, 1, 100,        20,         8, 1, 1, 0, 1, 0, 1, 0, 1, 0, 1
   201,  2,         8,      5.29,        10,         0,     1.05, 0,     100, 0, 1, 0, 0, 1, 1, 100,        20,         8, 1, 1, 0, 1, 0, 1, 0, 1, 0, 1
   201,  3,        76,      6.99,        30,       -25,     1.05, 0,     100, 0, 1, 0, 0, 1, 1, 100,        76,        30, 1, 1, 0, 1, 0, 1, 0, 1, 0, 1
   202,  1,         8,      5.13,        10,         0,     1.05, 0,     100, 0, 1, 0, 0, 1, 1, 100,        20,         8, 1, 1, 0, 1, 0, 1, 0, 1, 0, 1
   202,  2,         8,      5.13,        10,         0,     1.05, 0,     100, 0, 1, 0, 0, 1, 1, 100,        20,         8, 1, 1, 0, 1, 0, 1, 0, 1, 0, 1
   202,  3,        76,      2.01,        30,       -25,     1.05, 0,     100, 0, 1, 0, 0, 1, 1, 100,        76,        30, 1, 1, 0, 1, 0, 1, 0, 1, 0, 1
   202,  4,        76,      2.01,        30,       -25,     1.05, 0,     100, 0, 1, 0, 0, 1, 1, 100,        76,        30, 1, 1, 0, 1, 0, 1, 0, 1, 0, 1
   207,  1,        55,        19,        19,       -15,   0.9699, 0,     100, 0, 1, 0, 0, 1, 1, 100,        55,        22, 1, 1, 0, 1, 0, 1, 0, 1, 0, 1
   207,  2,        55,        19,        19,       -15,   0.9699, 0,     100, 0, 1, 0, 0, 1, 1, 100,        55,        22, 1, 1, 0, 1, 0, 1, 0, 1, 0, 1
   213,  1,       355,     135.8,       150,       -25,     1.05, 0,     100, 0, 1, 0, 0, 1, 1, 100,       355,       170, 1, 1, 0, 1, 0, 1, 0, 1, 0, 1
   213,  2,        55,      9.23,        19,       -15,     1.05, 0,     100, 0, 1, 0, 0, 1, 1, 100,        55,        22, 1, 1, 0, 1, 0, 1, 0, 1, 0, 1
   213,  3,        55,      9.23,        19,       -15,     1.05, 0,     100, 0, 1, 0, 0, 1, 1, 100,        55,        22, 1, 1, 0, 1, 0, 1, 0, 1, 0, 1
   215,  1,        55,        19,        19,       -15,   1.0437, 0,     100, 0, 1, 0, 0, 1, 1, 100,        55,        22, 1, 1, 0, 1, 0, 1, 0, 1, 0, 1
   215,  2,        55,        19,        19,       -15,   1.0437, 0,     100, 0, 1, 0, 0, 1, 1, 100,        55,        22, 1, 1, 0, 1, 0, 1, 0, 1, 0, 1
   216,  1,       155,        80,        80,       -50,   1.0473, 0,     100, 0, 1, 0, 0, 1, 1, 100,       155,        62, 1, 1, 0, 1, 0, 1, 0, 1, 0, 1
   218,  1,       355,      60.3,       150,       -25,     1.05, 0,     100, 0, 1, 0, 0, 1, 1, 100,       355,       170, 1, 1, 0, 1, 0, 1, 0, 1, 0, 1
   221,  1,    296.97,     -7.52,       150,       -25,     1.05, 0,     100, 0, 1, 0, 0, 1, 1, 100,       355,       170, 1, 1, 0, 1, 0, 1, 0, 1, 0, 1
   223,  1,       155,    -10.31,        80,       -50,     1.05, 0,     100, 0, 1, 0, 0, 1, 1, 100,       155,        62, 1, 1, 0, 1, 0, 1, 0, 1, 0, 1
   223,  2,       155,    -10.31,        80,       -50,     1.05, 0,     100, 0, 1, 0, 0, 1, 1, 100,       155,        62, 1, 1, 0, 1, 0, 1, 0, 1, 0, 1
   223,  3,       350,     20.59,       150,       -25,     1.05, 0,     100, 0, 1, 0, 0, 1, 1, 100,       350,       140, 1, 1, 0, 1, 0, 1, 0, 1, 0, 1
   223,  4,        22,      0.24,        19,       -15,     1.05, 0,     100, 0, 1, 0, 0, 1, 1, 100,        55,        22, 1, 1, 0, 1, 0, 1, 0, 1, 0, 1
   223,  5,        22,      0.24,        19,       -15,     1.05, 0,     100, 0, 1, 0, 0, 1, 1, 100,        55,        22, 1, 1, 0, 1, 0, 1, 0, 1, 0, 1
   223,  6,        22,      0.24,        19,       -15,     1.05, 0,     100, 0, 1, 0, 0, 1, 1, 100,        55,        22, 1, 1, 0, 1, 0, 1, 0, 1, 0, 1
   301,  1,         8,      7.95,        10,         0,     1.05, 0,     100, 0, 1, 0, 0, 1, 1, 100,        20,         8, 1, 1, 0, 1, 0, 1, 0, 1, 0, 1
   301,  2,         8,      7.95,        10,         0,     1.05, 0,     100, 0, 1, 0, 0, 1, 1, 100,        20,         8, 1, 1, 0, 1, 0, 1, 0, 1, 0, 1
   301,  3,        44,     16.53,        19,       -15,     1.05, 0,     100, 0, 1, 0, 0, 1, 1, 100,        55,        22, 1, 1, 0, 1, 0, 1, 0, 1, 0, 1
   301,  4,        44,     16.53,        19,       -15,     1.05, 0,     100, 0, 1, 0, 0, 1, 1, 100,        55,        22, 1, 1, 0, 1, 0, 1, 0, 1, 0, 1
   302,  1,         8,      6.16,        10,         0,     1.05, 0,     100, 0, 1, 0, 0, 1, 1, 100,        20,         8, 1, 1, 0, 1, 0, 1, 0, 1, 0, 1
   302,  2,         8,      6.16,        10,         0,     1.05, 0,     100, 0, 1, 0, 0, 1, 1, 100,        20,         8, 1, 1, 0, 1, 0, 1, 0, 1, 0, 1
   302,  3,        55,     10.99,        19,       -15,     1.05, 0,     100, 0, 1, 0, 0, 1, 1, 100,        55,        22, 1, 1, 0, 1, 0, 1, 0, 1, 0, 1
   302,  4,        55,     10.99,        19,       -15,     1.05, 0,     100, 0, 1, 0, 0, 1, 1, 100,        55,        22, 1, 1, 0, 1, 0, 1, 0, 1, 0, 1
   307,  1,        55,        19,        19,       -15,   0.9568, 0,     100, 0, 1, 0, 0, 1, 1, 100,        55,        22, 1, 1, 0, 1, 0, 1, 0, 1, 0, 1
   307,  2,        55,        19,        19,       -15,   0.9568, 0,     100, 0, 1, 0, 0, 1, 1, 100,        55,        22, 1, 1, 0, 1, 0, 1, 0, 1, 0, 1
   313,  1,       355,       150,       150,       -25,    1.035, 0,     100, 0, 1, 0, 0, 1, 1, 100,       355,       170, 1, 1, 0, 1, 0, 1, 0, 1, 0, 1
   315,  1,         5,         6,         6,         0,   1.0422, 0,     100, 0, 1, 0, 0, 1, 1, 100,        12,         5, 1, 1, 0, 1, 0, 1, 0, 1, 0, 1
   315,  2,         5,         6,         6,         0,   1.0422, 0,     100, 0, 1, 0, 0, 1, 1, 100,        12,         5, 1, 1, 0, 1, 0, 1, 0, 1, 0, 1
   315,  3,         5,         6,         6,         0,   1.0422, 0,     100, 0, 1, 0, 0, 1, 1, 100,        12,         5, 1, 1, 0, 1, 0, 1, 0, 1, 0, 1
   315,  4,         5,         6,         6,         0,   1.0422, 0,     100, 0, 1, 0, 0, 1, 1, 100,        12,         5, 1, 1, 0, 1, 0, 1, 0, 1, 0, 1
   315,  5,         5,         6,         6,         0,   1.0422, 0,     100, 0, 1, 0, 0, 1, 1, 100,        12,         5, 1, 1, 0, 1, 0, 1, 0, 1, 0, 1
   315,  6,        55,        19,        19,       -15,   1.0422, 0,     100, 0, 1, 0, 0, 1, 1, 100,        55,        22, 1, 1, 0, 1, 0, 1, 0, 1, 0, 1
   315,  7,        55,        19,        19,       -15,   1.0422, 0,     100, 0, 1, 0, 0, 1, 1, 100,        55,        22, 1, 1, 0, 1, 0, 1, 0, 1, 0, 1
   315,  8,        55,        60,        60,         0,   1.0422, 0,     100, 0, 1, 0, 0, 1, 1, 100,        55,        22, 1, 1, 0, 1, 0, 1, 0, 1, 0, 1
   316,  1,       155,        80,        80,       -50,   1.0449, 0,     100, 0, 1, 0, 0, 1, 1, 100,       155,        62, 1, 1, 0, 1, 0, 1, 0, 1, 0, 1
   318,  1,       355,     63.12,       150,       -25,     1.05, 0,     100, 0, 1, 0, 0, 1, 1, 100,       355,       170, 1, 1, 0, 1, 0, 1, 0, 1, 0, 1
   321,  1,       355,     -3.34,       150,       -25,     1.05, 0,     100, 0, 1, 0, 0, 1, 1, 100,       355,       170, 1, 1, 0, 1, 0, 1, 0, 1, 0, 1
   322,  1,        55,     -9.73,        19,       -15,     1.05, 0,     100, 0, 1, 0, 0, 1, 1, 100,        55,        22, 1, 1, 0, 1, 0, 1, 0, 1, 0, 1
   322,  2,        55,     -9.73,        19,       -15,     1.05, 0,     100, 0, 1, 0, 0, 1, 1, 100,        55,        22, 1, 1, 0, 1, 0, 1, 0, 1, 0, 1
   323,  1,       355,     37.41,       150,       -25,     1.05, 0,     100, 0, 1, 0, 0, 1, 1, 100,       355,       170, 1, 1, 0, 1, 0, 1, 0, 1, 0, 1
   323,  2,       355,     37.41,       150,       -25,     1.05, 0,     100, 0, 1, 0, 0, 1, 1, 100,       355,       170, 1, 1, 0, 1, 0, 1, 0, 1, 0, 1
   114,  1,         0,    103.32,       200,       -50,   1.0441, 0,     100, 0, 1, 0, 0, 1, 1, 100,         0,         0, 1, 1, 0, 1, 0, 1, 0, 1, 0, 1
   121,  1,       400,    -21.87,       200,       -50,     1.05, 0,     100, 0, 1, 0, 0, 1, 1, 100,       400,       396, 1, 1, 0, 1, 0, 1, 0, 1, 0, 1
   122,  1,        50,     -6.79,        16,       -10,     1.05, 0,     100, 0, 1, 0, 0, 1, 1, 100,        50,         0, 1, 1, 0, 1, 0, 1, 0, 1, 0, 1
   122,  2,        50,     -6.79,        16,       -10,     1.05, 0,     100, 0, 1, 0, 0, 1, 1, 100,        50,         0, 1, 1, 0, 1, 0, 1, 0, 1, 0, 1
   122,  3,        50,     -6.79,        16,       -10,     1.05, 0,     100, 0, 1, 0, 0, 1, 1, 100,        50,         0, 1, 1, 0, 1, 0, 1, 0, 1, 0, 1
   122,  4,        50,     -6.79,        16,       -10,     1.05, 0,     100, 0, 1, 0, 0, 1, 1, 100,        50,         0, 1, 1, 0, 1, 0, 1, 0, 1, 0, 1
   122,  5,        50,     -6.79,        16,       -10,     1.05, 0,     100, 0, 1, 0, 0, 1, 1, 100,        50,         0, 1, 1, 0, 1, 0, 1, 0, 1, 0, 1
   122,  6,        50,     -6.79,        16,       -10,     1.05, 0,     100, 0, 1, 0, 0, 1, 1, 100,        50,         0, 1, 1, 0, 1, 0, 1, 0, 1, 0, 1
   201,  4,        50,      4.15,        16,       -10,     1.05, 0,     100, 0, 1, 0, 0, 1, 1, 100,        50,         0, 1, 1, 0, 1, 0, 1, 0, 1, 0, 1
   214,  1,         0,    125.28,       200,       -50,     1.05, 0,     100, 0, 1, 0, 0, 1, 1, 100,         0,         0, 1, 1, 0, 1, 0, 1, 0, 1, 0, 1
   215,  3,        50,        16,        16,       -10,   1.0437, 0,     100, 0, 1, 0, 0, 1, 1, 100,        50,         0, 1, 1, 0, 1, 0, 1, 0, 1, 0, 1
   215,  4,        50,        16,        16,       -10,   1.0437, 0,     100, 0, 1, 0, 0, 1, 1, 100,        50,         0, 1, 1, 0, 1, 0, 1, 0, 1, 0, 1
   215,  5,        50,        16,        16,       -10,   1.0437, 0,     100, 0, 1, 0, 0, 1, 1, 100,        50,         0, 1, 1, 0, 1, 0, 1, 0, 1, 0, 1
   222,  1,        50,     -6.97,        16,       -10,     1.05, 0,     100, 0, 1, 0, 0, 1, 1, 100,        50,         0, 1, 1, 0, 1, 0, 1, 0, 1, 0, 1
   222,  2,        50,     -6.97,        16,       -10,     1.05, 0,     100, 0, 1, 0, 0, 1, 1, 100,        50,         0, 1, 1, 0, 1, 0, 1, 0, 1, 0, 1
   222,  3,        50,     -6.97,        16,       -10,     1.05, 0,     100, 0, 1, 0, 0, 1, 1, 100,        50,         0, 1, 1, 0, 1, 0, 1, 0, 1, 0, 1
   222,  4,        50,     -6.97,        16,       -10,     1.05, 0,     100, 0, 1, 0, 0, 1, 1, 100,        50,         0, 1, 1, 0, 1, 0, 1, 0, 1, 0, 1
   222,  5,        50,     -6.97,        16,       -10,     1.05, 0,     100, 0, 1, 0, 0, 1, 1, 100,        50,         0, 1, 1, 0, 1, 0, 1, 0, 1, 0, 1
   222,  6,        50,     -6.97,        16,       -10,     1.05, 0,     100, 0, 1, 0, 0, 1, 1, 100,        50,         0, 1, 1, 0, 1, 0, 1, 0, 1, 0, 1
   314,  1,         0,    166.63,       200,       -50,     1.05, 0,     100, 0, 1, 0, 0, 1, 1, 100,         0,         0, 1, 1, 0, 1, 0, 1, 0, 1, 0, 1
   322,  3,        50,     -5.13,        16,       -10,     1.05, 0,     100, 0, 1, 0, 0, 1, 1, 100,        50,         0, 1, 1, 0, 1, 0, 1, 0, 1, 0, 1
   322,  4,        50,     -5.13,        16,       -10,     1.05, 0,     100, 0, 1, 0, 0, 1, 1, 100,        50,         0, 1, 1, 0, 1, 0, 1, 0, 1, 0, 1
   322,  5,        50,     -5.13,        16,       -10,     1.05, 0,     100, 0, 1, 0, 0, 1, 1, 100,        50,         0, 1, 1, 0, 1, 0, 1, 0, 1, 0, 1
   322,  6,        50,     -5.13,        16,       -10,     1.05, 0,     100, 0, 1, 0, 0, 1, 1, 100,        50,         0, 1, 1, 0, 1, 0, 1, 0, 1, 0, 1
   320,  1,         0,         0,         0,         0,        1, 0,     100, 0, 1, 0, 0, 1, 0, 100,      51.6,         0, 1, 1, 0, 1, 0, 1, 0, 1, 0, 1
   314,  2,         0,         0,         0,         0,        1, 0,     100, 0, 1, 0, 0, 1, 0, 100,      51.6,         0, 1, 1, 0, 1, 0, 1, 0, 1, 0, 1
   314,  3,         0,         0,         0,         0,        1, 0,     100, 0, 1, 0, 0, 1, 0, 100,      51.6,         0, 1, 1, 0, 1, 0, 1, 0, 1, 0, 1
   313,  2,         0,         0,         0,         0,        1, 0,     100, 0, 1, 0, 0, 1, 0, 100,      95.1,         0, 1, 1, 0, 1, 0, 1, 0, 1, 0, 1
   314,  4,         0,         0,         0,         0,        1, 0,     100, 0, 1, 0, 0, 1, 0, 100,      92.7,         0, 1, 1, 0, 1, 0, 1, 0, 1, 0, 1
   314,  5,         0,         0,         0,         0,        1, 0,     100, 0, 1, 0, 0, 1, 0, 100,      51.6,         0, 1, 1, 0, 1, 0, 1, 0, 1, 0, 1
   313,  3,         0,         0,         0,         0,        1, 0,     100, 0, 1, 0, 0, 1, 0, 100,      93.3,         0, 1, 1, 0, 1, 0, 1, 0, 1, 0, 1
   310,  1,         0,         0,         0,         0,        1, 0,     100, 0, 1, 0, 0, 1, 0, 100,      51.7,         0, 1, 1, 0, 1, 0, 1, 0, 1, 0, 1
   324,  1,         0,         0,         0,         0,        1, 0,     100, 0, 1, 0, 0, 1, 0, 100,      49.7,         0, 1, 1, 0, 1, 0, 1, 0, 1, 0, 1
   312,  1,         0,         0,         0,         0,        1, 0,     100, 0, 1, 0, 0, 1, 0, 100,      94.1,         0, 1, 1, 0, 1, 0, 1, 0, 1, 0, 1
   310,  2,         0,         0,         0,         0,        1, 0,     100, 0, 1, 0, 0, 1, 0, 100,      51.6,         0, 1, 1, 0, 1, 0, 1, 0, 1, 0, 1
   324,  2,         0,         0,         0,         0,        1, 0,     100, 0, 1, 0, 0, 1, 0, 100,      51.6,         0, 1, 1, 0, 1, 0, 1, 0, 1, 0, 1
   324,  3,         0,         0,         0,         0,        1, 0,     100, 0, 1, 0, 0, 1, 0, 100,        51,         0, 1, 1, 0, 1, 0, 1, 0, 1, 0, 1
   113,  5,         0,         0,         0,         0,        1, 0,     100, 0, 1, 0, 0, 1, 0, 100,      93.6,         0, 1, 1, 0, 1, 0, 1, 0, 1, 0, 1
   319,  1,         0,         0,         0,         0,        1, 0,     100, 0, 1, 0, 0, 1, 0, 100,     188.2,         0, 1, 1, 0, 1, 0, 1, 0, 1, 0, 1
   215,  6,         0,         0,         0,         0,        1, 0,     100, 0, 1, 0, 0, 1, 0, 100,     125.1,         0, 1, 1, 0, 1, 0, 1, 0, 1, 0, 1
   102,  5,         0,         0,         0,         0,        1, 0,     100, 0, 1, 0, 0, 1, 0, 100,      25.6,         0, 1, 1, 0, 1, 0, 1, 0, 1, 0, 1
   101,  5,         0,         0,         0,         0,        1, 0,     100, 0, 1, 0, 0, 1, 0, 100,      25.9,         0, 1, 1, 0, 1, 0, 1, 0, 1, 0, 1
   102,  6,         0,         0,         0,         0,        1, 0,     100, 0, 1, 0, 0, 1, 0, 100,      25.3,         0, 1, 1, 0, 1, 0, 1, 0, 1, 0, 1
   104,  1,         0,         0,         0,         0,        1, 0,     100, 0, 1, 0, 0, 1, 0, 100,      26.8,         0, 1, 1, 0, 1, 0, 1, 0, 1, 0, 1
   212,  1,         0,         0,         0,         0,        1, 0,     100, 0, 1, 0, 0, 1, 0, 100,       200,        30, 1, 1, 0, 1, 0, 1, 0, 1, 0, 1
   101,  6,         0,         0,         0,         0,        1, 0,     100, 0, 1, 0, 0, 1, 0, 100,      26.7,         0, 1, 1, 0, 1, 0, 1, 0, 1, 0, 1
   101,  7,         0,         0,         0,         0,        1, 0,     100, 0, 1, 0, 0, 1, 0, 100,      26.2,         0, 1, 1, 0, 1, 0, 1, 0, 1, 0, 1
   101,  8,         0,         0,         0,         0,        1, 0,     100, 0, 1, 0, 0, 1, 0, 100,      25.8,         0, 1, 1, 0, 1, 0, 1, 0, 1, 0, 1
   103,  1,         0,         0,         0,         0,        1, 0,     100, 0, 1, 0, 0, 1, 0, 100,      61.5,         0, 1, 1, 0, 1, 0, 1, 0, 1, 0, 1
   119,  1,         0,         0,         0,         0,        1, 0,     100, 0, 1, 0, 0, 1, 0, 100,      66.6,         0, 1, 1, 0, 1, 0, 1, 0, 1, 0, 1
   308,  1,         0,         0,         0,         0,        1, 0,     100, 0, 1, 0, 0, 1, 0, 100,     100.9,         0, 1, 1, 0, 1, 0, 1, 0, 1, 0, 1
   313,  4,         0,         0,         0,         0,        1, 0,     100, 0, 1, 0, 0, 1, 0, 100,     101.7,         0, 1, 1, 0, 1, 0, 1, 0, 1, 0, 1
   313,  5,         0,         0,         0,         0,        1, 0,     100, 0, 1, 0, 0, 1, 0, 100,      63.1,         0, 1, 1, 0, 1, 0, 1, 0, 1, 0, 1
   313,  6,         0,         0,         0,         0,        1, 0,     100, 0, 1, 0, 0, 1, 0, 100,      65.4,         0, 1, 1, 0, 1, 0, 1, 0, 1, 0, 1
   313,  7,         0,         0,         0,         0,        1, 0,     100, 0, 1, 0, 0, 1, 0, 100,        67,         0, 1, 1, 0, 1, 0, 1, 0, 1, 0, 1
   313,  8,         0,         0,         0,         0,        1, 0,     100, 0, 1, 0, 0, 1, 0, 100,      64.8,         0, 1, 1, 0, 1, 0, 1, 0, 1, 0, 1
   313,  9,         0,         0,         0,         0,        1, 0,     100, 0, 1, 0, 0, 1, 0, 100,      63.8,         0, 1, 1, 0, 1, 0, 1, 0, 1, 0, 1
   313, 10,         0,         0,         0,         0,        1, 0,     100, 0, 1, 0, 0, 1, 0, 100,      64.1,         0, 1, 1, 0, 1, 0, 1, 0, 1, 0, 1
   313, 11,         0,         0,         0,         0,        1, 0,     100, 0, 1, 0, 0, 1, 0, 100,      66.6,         0, 1, 1, 0, 1, 0, 1, 0, 1, 0, 1
   313, 12,         0,         0,         0,         0,        1, 0,     100, 0, 1, 0, 0, 1, 0, 100,      62.4,         0, 1, 1, 0, 1, 0, 1, 0, 1, 0, 1
   313, 13,         0,         0,         0,         0,        1, 0,     100, 0, 1, 0, 0, 1, 0, 100,      66.9,         0, 1, 1, 0, 1, 0, 1, 0, 1, 0, 1
   313, 14,         0,         0,         0,         0,        1, 0,     100, 0, 1, 0, 0, 1, 0, 100,      65.2,         0, 1, 1, 0, 1, 0, 1, 0, 1, 0, 1
   313, 15,         0,         0,         0,         0,        1, 0,     100, 0, 1, 0, 0, 1, 0, 100,      27.8,         0, 1, 1, 0, 1, 0, 1, 0, 1, 0, 1
   320,  2,         0,         0,         0,         0,        1, 0,     100, 0, 1, 0, 0, 1, 0, 100,      27.3,         0, 1, 1, 0, 1, 0, 1, 0, 1, 0, 1
   320,  3,         0,         0,         0,         0,        1, 0,     100, 0, 1, 0, 0, 1, 0, 100,        27,         0, 1, 1, 0, 1, 0, 1, 0, 1, 0, 1
   320,  4,         0,         0,         0,         0,        1, 0,     100, 0, 1, 0, 0, 1, 0, 100,      28.3,         0, 1, 1, 0, 1, 0, 1, 0, 1, 0, 1
   313, 16,         0,         0,         0,         0,        1, 0,     100, 0, 1, 0, 0, 1, 0, 100,      27.2,         0, 1, 1, 0, 1, 0, 1, 0, 1, 0, 1
   320,  5,         0,         0,         0,         0,        1, 0,     100, 0, 1, 0, 0, 1, 0, 100,        27,         0, 1, 1, 0, 1, 0, 1, 0, 1, 0, 1
   320,  6,         0,         0,         0,         0,        1, 0,     100, 0, 1, 0, 0, 1, 0, 100,      28.2,         0, 1, 1, 0, 1, 0, 1, 0, 1, 0, 1
   118,  2,         0,         0,         0,         0,        1, 0,     100, 0, 1, 0, 0, 1, 0, 100,       9.3,         0, 1, 1, 0, 1, 0, 1, 0, 1, 0, 1
   118,  3,         0,         0,         0,         0,        1, 0,     100, 0, 1, 0, 0, 1, 0, 100,       9.7,         0, 1, 1, 0, 1, 0, 1, 0, 1, 0, 1
   118,  4,         0,         0,         0,         0,        1, 0,     100, 0, 1, 0, 0, 1, 0, 100,       9.4,         0, 1, 1, 0, 1, 0, 1, 0, 1, 0, 1
   118,  5,         0,         0,         0,         0,        1, 0,     100, 0, 1, 0, 0, 1, 0, 100,       9.1,         0, 1, 1, 0, 1, 0, 1, 0, 1, 0, 1
   118,  6,         0,         0,         0,         0,        1, 0,     100, 0, 1, 0, 0, 1, 0, 100,       9.1,         0, 1, 1, 0, 1, 0, 1, 0, 1, 0, 1
   118,  7,         0,         0,         0,         0,        1, 0,     100, 0, 1, 0, 0, 1, 0, 100,       9.7,         0, 1, 1, 0, 1, 0, 1, 0, 1, 0, 1
   320,  7,         0,         0,         0,         0,        1, 0,     100, 0, 1, 0, 0, 1, 0, 100,       9.4,         0, 1, 1, 0, 1, 0, 1, 0, 1, 0, 1
   118,  8,         0,         0,         0,         0,        1, 0,     100, 0, 1, 0, 0, 1, 0, 100,      11.8,         0, 1, 1, 0, 1, 0, 1, 0, 1, 0, 1
   118,  9,         0,         0,         0,         0,        1, 0,     100, 0, 1, 0, 0, 1, 0, 100,      11.2,         0, 1, 1, 0, 1, 0, 1, 0, 1, 0, 1
   118, 10,         0,         0,         0,         0,        1, 0,     100, 0, 1, 0, 0, 1, 0, 100,      10.3,         0, 1, 1, 0, 1, 0, 1, 0, 1, 0, 1
   118, 11,         0,         0,         0,         0,        1, 0,     100, 0, 1, 0, 0, 1, 0, 100,       4.5,         0, 1, 1, 0, 1, 0, 1, 0, 1, 0, 1
   213,  4,         0,         0,         0,         0,        1, 0,     100, 0, 1, 0, 0, 1, 0, 100,      13.2,         0, 1, 1, 0, 1, 0, 1, 0, 1, 0, 1
   309,  1,         0,         0,         0,         0,        1, 0,     100, 0, 1, 0, 0, 1, 0, 100,     148.3,         0, 1, 1, 0, 1, 0, 1, 0, 1, 0, 1
   317,  1,         0,         0,         0,         0,        1, 0,     100, 0, 1, 0, 0, 1, 0, 100,     799.1,         0, 1, 1, 0, 1, 0, 1, 0, 1, 0, 1
   303,  1,         0,         0,         0,         0,        1, 0,     100, 0, 1, 0, 0, 1, 0, 100,       847,         0, 1, 1, 0, 1, 0, 1, 0, 1, 0, 1
   122,  7,         0,         0,         0,         0,        1, 0,     100, 0, 1, 0, 0, 1, 0, 100,     713.5,         0, 1, 1, 0, 1, 0, 1, 0, 1, 0, 1
   313, 17,         0,         0,         0,         0,        1, 0,     100, 0, 1, 0, 0, 1, 0, 100,        50,         0, 1, 1, 0, 1, 0, 1, 0, 1, 0, 1
0 / END OF GENERATOR DATA, BEGIN BRANCH DATA
   101,    102, 1,    0.003,    0.014,    0.461,     175,     175,     175, 0, 0, 0, 0, 1, 1, 0, 1, 1, 0, 1, 0, 1, 0, 1
   101,    103, 1,    0.055,    0.211,    0.057,     175,     175,     175, 0, 0, 0, 0, 1, 1, 0, 1, 1, 0, 1, 0, 1, 0, 1
   101,    105, 1,    0.022,    0.085,    0.023,     175,     175,     175, 0, 0, 0, 0, 1, 1, 0, 1, 1, 0, 1, 0, 1, 0, 1
   102,    104, 1,    0.033,    0.127,    0.034,     175,     175,     175, 0, 0, 0, 0, 1, 1, 0, 1, 1, 0, 1, 0, 1, 0, 1
   102,    106, 1,     0.05,    0.192,    0.052,     175,     175,     175, 0, 0, 0, 0, 1, 1, 0, 1, 1, 0, 1, 0, 1, 0, 1
   103,    109, 1,    0.031,    0.119,    0.032,     175,     175,     175, 0, 0, 0, 0, 1, 1, 0, 1, 1, 0, 1, 0, 1, 0, 1
   104,    109, 1,    0.027,    0.104,    0.028,     175,     175,     175, 0, 0, 0, 0, 1, 1, 0, 1, 1, 0, 1, 0, 1, 0, 1
   105,    110, 1,    0.023,    0.088,    0.024,     175,     175,     175, 0, 0, 0, 0, 1, 1, 0, 1, 1, 0, 1, 0, 1, 0, 1
   106,    110, 1,    0.014,    0.061,    2.459,     175,     175,     175, 0, 0, 0, 0, 1, 1, 0, 1, 1, 0, 1, 0, 1, 0, 1
   107,    108, 1,    0.016,    0.061,    0.017,     175,     175,     175, 0, 0, 0, 0, 1, 1, 0, 1, 1, 0, 1, 0, 1, 0, 1
   107,    203, 1,    0.042,    0.161,    0.044,     175,     175,     175, 0, 0, 0, 0, 1, 1, 0, 1, 1, 0, 1, 0, 1, 0, 1
   108,    109, 1,    0.043,    0.165,    0.045,     175,     175,     175, 0, 0, 0, 0, 1, 1, 0, 1, 1, 0, 1, 0, 1, 0, 1
   108,    110, 1,    0.043,    0.165,    0.045,     175,     175,     175, 0, 0, 0, 0, 1, 1, 0, 1, 1, 0, 1, 0, 1, 0, 1
   111,    113, 1,    0.006,    0.048,      0.1,     500,     500,     500, 0, 0, 0, 0, 1, 1, 0, 1, 1, 0, 1, 0, 1, 0, 1
   111,    114, 1,    0.005,    0.042,    0.088,     500,     500,     500, 0, 0, 0, 0, 1, 1, 0, 1, 1, 0, 1, 0, 1, 0, 1
   112,    113, 1,    0.006,    0.048,      0.1,     500,     500,     500, 0, 0, 0, 0, 1, 1, 0, 1, 1, 0, 1, 0, 1, 0, 1
   112,    123, 1,    0.012,    0.097,    0.203,     500,     500,     500, 0, 0, 0, 0, 1, 1, 0, 1, 1, 0, 1, 0, 1, 0, 1
   113,    123, 1,    0.011,    0.087,    0.182,     500,     500,     500, 0, 0, 0, 0, 1, 1, 0, 1, 1, 0, 1, 0, 1, 0, 1
   113,    215, 1,     0.01,    0.075,    0.158,     500,     500,     500, 0, 0, 0, 0, 1, 1, 0, 1, 1, 0, 1, 0, 1, 0, 1
   114,    116, 1,    0.005,    0.059,    0.082,     500,     500,     500, 0, 0, 0, 0, 1, 1, 0, 1, 1, 0, 1, 0, 1, 0, 1
   115,    116, 1,    0.002,    0.017,    0.036,     500,     500,     500, 0, 0, 0, 0, 1, 1, 0, 1, 1, 0, 1, 0, 1, 0, 1
   115,    121, 1,    0.006,    0.049,    0.103,     500,     500,     500, 0, 0, 0, 0, 1, 1, 0, 1, 1, 0, 1, 0, 1, 0, 1
   115,    121, 2,    0.006,    0.049,    0.103,     500,     500,     500, 0, 0, 0, 0, 1, 1, 0, 1, 1, 0, 1, 0, 1, 0, 1
   115,    124, 1,    0.007,    0.052,    0.109,     500,     500,     500, 0, 0, 0, 0, 1, 1, 0, 1, 1, 0, 1, 0, 1, 0, 1
   116,    117, 1,    0.003,    0.026,    0.055,     500,     500,     500, 0, 0, 0, 0, 1, 1, 0, 1, 1, 0, 1, 0, 1, 0, 1
   116,    119, 1,    0.003,    0.023,    0.049,     500,     500,     500, 0, 0, 0, 0, 1, 1, 0, 1, 1, 0, 1, 0, 1, 0, 1
   117,    118, 1,    0.002,    0.014,     0.03,     500,     500,     500, 0, 0, 0, 0, 1, 1, 0, 1, 1, 0, 1, 0, 1, 0, 1
   117,    122, 1,    0.014,    0.105,    0.221,     500,     500,     500, 0, 0, 0, 0, 1, 1, 0, 1, 1, 0, 1, 0, 1, 0, 1
   118,    121, 1,    0.003,    0.026,    0.055,     500,     500,     500, 0, 0, 0, 0, 1, 1, 0, 1, 1, 0, 1, 0, 1, 0, 1
   118,    121, 2,    0.003,    0.026,    0.055,     500,     500,     500, 0, 0, 0, 0, 1, 1, 0, 1, 1, 0, 1, 0, 1, 0, 1
   119,    120, 1,    0.005,     0.04,    0.083,     500,     500,     500, 0, 0, 0, 0, 1, 1, 0, 1, 1, 0, 1, 0, 1, 0, 1
   119,    120, 2,    0.005,     0.04,    0.083,     500,     500,     500, 0, 0, 0, 0, 1, 1, 0, 1, 1, 0, 1, 0, 1, 0, 1
   120,    123, 1,    0.003,    0.022,    0.046,     500,     500,     500, 0, 0, 0, 0, 1, 1, 0, 1, 1, 0, 1, 0, 1, 0, 1
   120,    123, 2,    0.003,    0.022,    0.046,     500,     500,     500, 0, 0, 0, 0, 1, 1, 0, 1, 1, 0, 1, 0, 1, 0, 1
   121,    122, 1,    0.009,    0.068,    0.142,     500,     500,     500, 0, 0, 0, 0, 1, 1, 0, 1, 1, 0, 1, 0, 1, 0, 1
   123,    217, 1,     0.01,    0.074,    0.155,     500,     500,     500, 0, 0, 0, 0, 1, 1, 0, 1, 1, 0, 1, 0, 1, 0, 1
   201,    202, 1,    0.003,    0.014,    0.461,     175,     175,     175, 0, 0, 0, 0, 1, 1, 0, 1, 1, 0, 1, 0, 1, 0, 1
   201,    203, 1,    0.055,    0.211,    0.057,     175,     175,     175, 0, 0, 0, 0, 1, 1, 0, 1, 1, 0, 1, 0, 1, 0, 1
   201,    205, 1,    0.022,    0.085,    0.023,     175,     175,     175, 0, 0, 0, 0, 1, 1, 0, 1, 1, 0, 1, 0, 1, 0, 1
   202,    204, 1,    0.033,    0.127,    0.034,     175,     175,     175, 0, 0, 0, 0, 1, 1, 0, 1, 1, 0, 1, 0, 1, 0, 1
   202,    206, 1,     0.05,    0.192,    0.052,     175,     175,     175, 0, 0, 0, 0, 1, 1, 0, 1, 1, 0, 1, 0, 1, 0, 1
   203,    209, 1,    0.031,    0.119,    0.032,     175,     175,     175, 0, 0, 0, 0, 1, 1, 0, 1, 1, 0, 1, 0, 1, 0, 1
   204,    209, 1,    0.027,    0.104,    0.028,     175,     175,     175, 0, 0, 0, 0, 1, 1, 0, 1, 1, 0, 1, 0, 1, 0, 1
   205,    210, 1,    0.023,    0.088,    0.024,     175,     175,     175, 0, 0, 0, 0, 1, 1, 0, 1, 1, 0, 1, 0, 1, 0, 1
   206,    210, 1,    0.014,    0.061,    2.459,     175,     175,     175, 0, 0, 0, 0, 1, 1, 0, 1, 1, 0, 1, 0, 1, 0, 1
   207,    208, 1,    0.016,    0.061,    0.017,     175,     175,     175, 0, 0, 0, 0, 1, 1, 0, 1, 1, 0, 1, 0, 1, 0, 1
   208,    209, 1,    0.043,    0.165,    0.045,     175,     175,     175, 0, 0, 0, 0, 1, 1, 0, 1, 1, 0, 1, 0, 1, 0, 1
   208,    210, 1,    0.043,    0.165,    0.045,     175,     175,     175, 0, 0, 0, 0, 1, 1, 0, 1, 1, 0, 1, 0, 1, 0, 1
   211,    213, 1,    0.006,    0.048,      0.1,     500,     500,     500, 0, 0, 0, 0, 1, 1, 0, 1, 1, 0, 1, 0, 1, 0, 1
   211,    214, 1,    0.005,    0.042,    0.088,     500,     500,     500, 0, 0, 0, 0, 1, 1, 0, 1, 1, 0, 1, 0, 1, 0, 1
   212,    213, 1,    0.006,    0.048,      0.1,     500,     500,     500, 0, 0, 0, 0, 1, 1, 0, 1, 1, 0, 1, 0, 1, 0, 1
   212,    223, 1,    0.012,    0.097,    0.203,     500,     500,     500, 0, 0, 0, 0, 1, 1, 0, 1, 1, 0, 1, 0, 1, 0, 1
   213,    223, 1,    0.011,    0.087,    0.182,     500,     500,     500, 0, 0, 0, 0, 1, 1, 0, 1, 1, 0, 1, 0, 1, 0, 1
   214,    216, 1,    0.005,    0.059,    0.082,     500,     500,     500, 0, 0, 0, 0, 1, 1, 0, 1, 1, 0, 1, 0, 1, 0, 1
   215,    216, 1,    0.002,    0.017,    0.036,     500,     500,     500, 0, 0, 0, 0, 1, 1, 0, 1, 1, 0, 1, 0, 1, 0, 1
   215,    221, 1,    0.006,    0.049,    0.103,     500,     500,     500, 0, 0, 0, 0, 1, 1, 0, 1, 1, 0, 1, 0, 1, 0, 1
   215,    221, 2,    0.006,    0.049,    0.103,     500,     500,     500, 0, 0, 0, 0, 1, 1, 0, 1, 1, 0, 1, 0, 1, 0, 1
   215,    224, 1,    0.007,    0.052,    0.109,     500,     500,     500, 0, 0, 0, 0, 1, 1, 0, 1, 1, 0, 1, 0, 1, 0, 1
   216,    217, 1,    0.003,    0.026,    0.055,     500,     500,     500, 0, 0, 0, 0, 1, 1, 0, 1, 1, 0, 1, 0, 1, 0, 1
   216,    219, 1,    0.003,    0.023,    0.049,     500,     500,     500, 0, 0, 0, 0, 1, 1, 0, 1, 1, 0, 1, 0, 1, 0, 1
   217,    218, 1,    0.002,    0.014,     0.03,     500,     500,     500, 0, 0, 0, 0, 1, 1, 0, 1, 1, 0, 1, 0, 1, 0, 1
   217,    222, 1,    0.014,    0.105,    0.221,     500,     500,     500, 0, 0, 0, 0, 1, 1, 0, 1, 1, 0, 1, 0, 1, 0, 1
   218,    221, 1,    0.003,    0.026,    0.055,     500,     500,     500, 0, 0, 0, 0, 1, 1, 0, 1, 1, 0, 1, 0, 1, 0, 1
   218,    221, 2,    0.003,    0.026,    0.055,     500,     500,     500, 0, 0, 0, 0, 1, 1, 0, 1, 1, 0, 1, 0, 1, 0, 1
   219,    220, 1,    0.005,     0.04,    0.083,     500,     500,     500, 0, 0, 0, 0, 1, 1, 0, 1, 1, 0, 1, 0, 1, 0, 1
   219,    220, 2,    0.005,     0.04,    0.083,     500,     500,     500, 0, 0, 0, 0, 1, 1, 0, 1, 1, 0, 1, 0, 1, 0, 1
   220,    223, 1,    0.003,    0.022,    0.046,     500,     500,     500, 0, 0, 0, 0, 1, 1, 0, 1, 1, 0, 1, 0, 1, 0, 1
   220,    223, 2,    0.003,    0.022,    0.046,     500,     500,     500, 0, 0, 0, 0, 1, 1, 0, 1, 1, 0, 1, 0, 1, 0, 1
   221,    222, 1,    0.009,    0.068,    0.142,     500,     500,     500, 0, 0, 0, 0, 1, 1, 0, 1, 1, 0, 1, 0, 1, 0, 1
   301,    302, 1,    0.003,    0.014,    0.461,     175,     175,     175, 0, 0, 0, 0, 1, 1, 0, 1, 1, 0, 1, 0, 1, 0, 1
   301,    303, 1,    0.055,    0.211,    0.057,     175,     175,     175, 0, 0, 0, 0, 1, 1, 0, 1, 1, 0, 1, 0, 1, 0, 1
   301,    305, 1,    0.022,    0.085,    0.023,     175,     175,     175, 0, 0, 0, 0, 1, 1, 0, 1, 1, 0, 1, 0, 1, 0, 1
   302,    304, 1,    0.033,    0.127,    0.034,     175,     175,     175, 0, 0, 0, 0, 1, 1, 0, 1, 1, 0, 1, 0, 1, 0, 1
   302,    306, 1,     0.05,    0.192,    0.052,     175,     175,     175, 0, 0, 0, 0, 1, 1, 0, 1, 1, 0, 1, 0, 1, 0, 1
   303,    309, 1,    0.031,    0.119,    0.032,     175,     175,     175, 0, 0, 0, 0, 1, 1, 0, 1, 1, 0, 1, 0, 1, 0, 1
   304,    309, 1,    0.027,    0.104,    0.028,     175,     175,     175, 0, 0, 0, 0, 1, 1, 0, 1, 1, 0, 1, 0, 1, 0, 1
   305,    310, 1,    0.023,    0.088,    0.024,     175,     175,     175, 0, 0, 0, 0, 1, 1, 0, 1, 1, 0, 1, 0, 1, 0, 1
   306,    310, 1,    0.014,    0.061,    2.459,     175,     175,     175, 0, 0, 0, 0, 1, 1, 0, 1, 1, 0, 1, 0, 1, 0, 1
   307,    308, 1,    0.016,    0.061,    0.017,     175,     175,     175, 0, 0, 0, 0, 1, 1, 0, 1, 1, 0, 1, 0, 1, 0, 1
   308,    309, 1,    0.043,    0.165,    0.045,     175,     175,     175, 0, 0, 0, 0, 1, 1, 0, 1, 1, 0, 1, 0, 1, 0, 1
   308,    310, 1,    0.043,    0.165,    0.045,     175,     175,     175, 0, 0, 0, 0, 1, 1, 0, 1, 1, 0, 1, 0, 1, 0, 1
   311,    313, 1,    0.006,    0.048,      0.1,     500,     500,     500, 0, 0, 0, 0, 1, 1, 0, 1, 1, 0, 1, 0, 1, 0, 1
   311,    314, 1,    0.005,    0.042,    0.088,     500,     500,     500, 0, 0, 0, 0, 1, 1, 0, 1, 1, 0, 1, 0, 1, 0, 1
   312,    313, 1,    0.006,    0.048,      0.1,     500,     500,     500, 0, 0, 0, 0, 1, 1, 0, 1, 1, 0, 1, 0, 1, 0, 1
   312,    323, 1,    0.012,    0.097,    0.203,     500,     500,     500, 0, 0, 0, 0, 1, 1, 0, 1, 1, 0, 1, 0, 1, 0, 1
   313,    323, 1,    0.011,    0.087,    0.182,     500,     500,     500, 0, 0, 0, 0, 1, 1, 0, 1, 1, 0, 1, 0, 1, 0, 1
   314,    316, 1,    0.005,    0.059,    0.082,     500,     500,     500, 0, 0, 0, 0, 1, 1, 0, 1, 1, 0, 1, 0, 1, 0, 1
   315,    316, 1,    0.002,    0.017,    0.036,     500,     500,     500, 0, 0, 0, 0, 1, 1, 0, 1, 1, 0, 1, 0, 1, 0, 1
   315,    321, 1,    0.006,    0.049,    0.103,     500,     500,     500, 0, 0, 0, 0, 1, 1, 0, 1, 1, 0, 1, 0, 1, 0, 1
   315,    321, 2,    0.006,    0.049,    0.103,     500,     500,     500, 0, 0, 0, 0, 1, 1, 0, 1, 1, 0, 1, 0, 1, 0, 1
   315,    324, 1,    0.007,    0.052,    0.109,     500,     500,     500, 0, 0, 0, 0, 1, 1, 0, 1, 1, 0, 1, 0, 1, 0, 1
   316,    317, 1,    0.003,    0.026,    0.055,     500,     500,     500, 0, 0, 0, 0, 1, 1, 0, 1, 1, 0, 1, 0, 1, 0, 1
   316,    319, 1,    0.003,    0.023,    0.049,     500,     500,     500, 0, 0, 0, 0, 1, 1, 0, 1, 1, 0, 1, 0, 1, 0, 1
   317,    318, 1,    0.002,    0.014,     0.03,     500,     500,     500, 0, 0, 0, 0, 1, 1, 0, 1, 1, 0, 1, 0, 1, 0, 1
   317,    322, 1,    0.014,    0.105,    0.221,     500,     500,     500, 0, 0, 0, 0, 1, 1, 0, 1, 1, 0, 1, 0, 1, 0, 1
   318,    321, 1,    0.003,    0.026,    0.055,     500,     500,     500, 0, 0, 0, 0, 1, 1, 0, 1, 1, 0, 1, 0, 1, 0, 1
   318,    321, 2,    0.003,    0.026,    0.055,     500,     500,     500, 0, 0, 0, 0, 1, 1, 0, 1, 1, 0, 1, 0, 1, 0, 1
   319,    320, 1,    0.005,     0.04,    0.083,     500,     500,     500, 0, 0, 0, 0, 1, 1, 0, 1, 1, 0, 1, 0, 1, 0, 1
   319,    320, 2,    0.005,     0.04,    0.083,     500,     500,     500, 0, 0, 0, 0, 1, 1, 0, 1, 1, 0, 1, 0, 1, 0, 1
   320,    323, 1,    0.003,    0.022,    0.046,     500,     500,     500, 0, 0, 0, 0, 1, 1, 0, 1, 1, 0, 1, 0, 1, 0, 1
   320,    323, 2,    0.003,    0.022,    0.046,     500,     500,     500, 0, 0, 0, 0, 1, 1, 0, 1, 1, 0, 1, 0, 1, 0, 1
   321,    322, 1,    0.009,    0.068,    0.142,     500,     500,     500, 0, 0, 0, 0, 1, 1, 0, 1, 1, 0, 1, 0, 1, 0, 1
   325,    121, 1,    0.012,    0.097,    0.203,     500,     500,     500, 0, 0, 0, 0, 1, 1, 0, 1, 1, 0, 1, 0, 1, 0, 1
   318,    223, 1,    0.013,    0.104,    0.218,     500,     500,     500, 0, 0, 0, 0, 1, 1, 0, 1, 1, 0, 1, 0, 1, 0, 1
0 / END OF BRANCH DATA, BEGIN TRANSFORMER DATA
   103,    124, 0, 1, 1, 1, 1, 0, 0, 2, '            ', 1, 1, 1, 0, 1, 0, 1, 0, 1, '            '
0.002, 0.084, 100
1.015, 0,     0,     400,     400,     400, 0, 0, 1.1, 0.9, 1.1, 0.9, 33, 0, 0, 0, 0
    1, 0
   109,    111, 0, 1, 1, 1, 1, 0, 0, 2, '            ', 1, 1, 1, 0, 1, 0, 1, 0, 1, '            '
0.002, 0.084, 100
 1.03, 0,     0,     400,     400,     400, 0, 0, 1.1, 0.9, 1.1, 0.9, 33, 0, 0, 0, 0
    1, 0
   109,    112, 0, 1, 1, 1, 1, 0, 0, 2, '            ', 1, 1, 1, 0, 1, 0, 1, 0, 1, '            '
0.002, 0.084, 100
 1.03, 0,     0,     400,     400,     400, 0, 0, 1.1, 0.9, 1.1, 0.9, 33, 0, 0, 0, 0
    1, 0
   110,    111, 0, 1, 1, 1, 1, 0, 0, 2, '            ', 1, 1, 1, 0, 1, 0, 1, 0, 1, '            '
0.002, 0.084, 100
1.015, 0,     0,     400,     400,     400, 0, 0, 1.1, 0.9, 1.1, 0.9, 33, 0, 0, 0, 0
    1, 0
   110,    112, 0, 1, 1, 1, 1, 0, 0, 2, '            ', 1, 1, 1, 0, 1, 0, 1, 0, 1, '            '
0.002, 0.084, 100
1.015, 0,     0,     400,     400,     400, 0, 0, 1.1, 0.9, 1.1, 0.9, 33, 0, 0, 0, 0
    1, 0
   203,    224, 0, 1, 1, 1, 1, 0, 0, 2, '            ', 1, 1, 1, 0, 1, 0, 1, 0, 1, '            '
0.002, 0.084, 100
1.015, 0,     0,     400,     400,     400, 0, 0, 1.1, 0.9, 1.1, 0.9, 33, 0, 0, 0, 0
    1, 0
   209,    211, 0, 1, 1, 1, 1, 0, 0, 2, '            ', 1, 1, 1, 0, 1, 0, 1, 0, 1, '            '
0.002, 0.084, 100
 1.03, 0,     0,     400,     400,     400, 0, 0, 1.1, 0.9, 1.1, 0.9, 33, 0, 0, 0, 0
    1, 0
   209,    212, 0, 1, 1, 1, 1, 0, 0, 2, '            ', 1, 1, 1, 0, 1, 0, 1, 0, 1, '            '
0.002, 0.084, 100
 1.03, 0,     0,     400,     400,     400, 0, 0, 1.1, 0.9, 1.1, 0.9, 33, 0, 0, 0, 0
    1, 0
   210,    211, 0, 1, 1, 1, 1, 0, 0, 2, '            ', 1, 1, 1, 0, 1, 0, 1, 0, 1, '            '
0.002, 0.084, 100
1.015, 0,     0,     400,     400,     400, 0, 0, 1.1, 0.9, 1.1, 0.9, 33, 0, 0, 0, 0
    1, 0
   210,    212, 0, 1, 1, 1, 1, 0, 0, 2, '            ', 1, 1, 1, 0, 1, 0, 1, 0, 1, '            '
0.002, 0.084, 100
1.015, 0,     0,     400,     400,     400, 0, 0, 1.1, 0.9, 1.1, 0.9, 33, 0, 0, 0, 0
    1, 0
   303,    324, 0, 1, 1, 1, 1, 0, 0, 2, '            ', 1, 1, 1, 0, 1, 0, 1, 0, 1, '            '
0.002, 0.084, 100
1.015, 0,     0,     400,     400,     400, 0, 0, 1.1, 0.9, 1.1, 0.9, 33, 0, 0, 0, 0
    1, 0
   309,    311, 0, 1, 1, 1, 1, 0, 0, 2, '            ', 1, 1, 1, 0, 1, 0, 1, 0, 1, '            '
0.002, 0.084, 100
 1.03, 0,     0,     400,     400,     400, 0, 0, 1.1, 0.9, 1.1, 0.9, 33, 0, 0, 0, 0
    1, 0
   309,    312, 0, 1, 1, 1, 1, 0, 0, 2, '            ', 1, 1, 1, 0, 1, 0, 1, 0, 1, '            '
0.002, 0.084, 100
 1.03, 0,     0,     400,     400,     400, 0, 0, 1.1, 0.9, 1.1, 0.9, 33, 0, 0, 0, 0
    1, 0
   310,    311, 0, 1, 1, 1, 1, 0, 0, 2, '            ', 1, 1, 1, 0, 1, 0, 1, 0, 1, '            '
0.002, 0.084, 100
1.015, 0,     0,     400,     400,     400, 0, 0, 1.1, 0.9, 1.1, 0.9, 33, 0, 0, 0, 0
    1, 0
   310,    312, 0, 1, 1, 1, 1, 0, 0, 2, '            ', 1, 1, 1, 0, 1, 0, 1, 0, 1, '            '
0.002, 0.084, 100
1.015, 0,     0,     400,     400,     400, 0, 0, 1.1, 0.9, 1.1, 0.9, 33, 0, 0, 0, 0
    1, 0
   323,    325, 0, 1, 1, 1, 1, 0, 0, 2, '            ', 1, 1, 1, 0, 1, 0, 1, 0, 1, '            '
0, 0.009, 100
    1, 0,     0,     722,     722,     722, 0, 0, 1.1, 0.9, 1.1, 0.9, 33, 0, 0, 0, 0
    1, 0
0 / END OF TRANSFORMER DATA, BEGIN AREA DATA
0 / END OF AREA DATA, BEGIN TWO-TERMINAL DC DATA
'DCLINE 1    ', 1, 0.0,         0, 500, 0.0, 0.0, 0.0, I, 0.0, 20, 1.0
   113, 1, 25.0, 15.0, 0, 0,      230, 1.0, 1.0, 1.5, 0.51, 0.00625, 0, 0, 0, '1', 0.0
   316, 1, 25.0, 15.0, 0, 0,      230, 1.0, 1.0, 1.5, 0.51, 0.00625, 0, 0, 0, '1', 0.0
0 / END OF TWO-TERMINAL DC DATA, BEGIN VOLTAGE SOURCE CONVERTER DATA
0 / END OF VOLTAGE SOURCE CONVERTER DATA, BEGIN IMPEDANCE CORRECTION DATA
0 / END OF IMPEDANCE CORRECTION DATA, BEGIN MULTI-TERMINAL DC DATA
0 / END OF MULTI-TERMINAL DC DATA, BEGIN MULTI-SECTION LINE DATA
0 / END OF MULTI-SECTION LINE DATA, BEGIN ZONE DATA
0 / END OF ZONE DATA, BEGIN INTER-AREA TRANSFER DATA
0 / END OF INTER-AREA TRANSFER DATA, BEGIN OWNER DATA
0 / END OF OWNER DATA, BEGIN FACTS CONTROL DEVICE DATA
0 / END OF FACTS CONTROL DEVICE DATA, BEGIN SWITCHED SHUNT DATA
0 / END OF SWITCHED SHUNT DATA, BEGIN GNE DEVICE DATA
0 / END OF GNE DEVICE DATA, BEGIN INDUCTION MACHINE DATA
0 / END OF INDUCTION MACHINE DATA
Q
